LAMMPS (29 Aug 2024 - Update 1)
units           real
atom_style      full
boundary        p p p

read_data       1H2O
Reading data file ...
  orthogonal box = (0 0 0) to (3.9199999 3.9199999 3.9199999)
  reading atoms ...
  3 atoms
  scanning bonds ...
  scanning angles ...
  orthogonal box = (0 0 0) to (3.9199999 3.9199999 3.9199999)
  reading bonds ...
  2 bonds
  reading angles ...
  1 angles
Finding 1-2 1-3 1-4 neighbors ...
     2 = max # of 1-2 neighbors
     1 = max # of 1-3 neighbors
     1 = max # of 1-4 neighbors
     2 = max # of special neighbors
replicate       10 10 10
Replication is creating a 10x10x10 = 1000 times larger system...
  orthogonal box = (0 0 0) to (39.199999 39.199999 39.199999)
  3000 atoms
  2000 bonds
  1000 angles
Finding 1-2 1-3 1-4 neighbors ...
     2 = max # of 1-2 neighbors
     1 = max # of 1-3 neighbors
     1 = max # of 1-4 neighbors
     2 = max # of special neighbors
  replicate CPU = 0.003 seconds

pair_style      lj/cut/tip4p/long 1 2 1 1 0.1546 12
kspace_style    pppm/tip4p 1.0e-4

bond_style      harmonic
angle_style     harmonic

pair_coeff      1 1 0.18521 3.1589 # O-O
pair_coeff      2 2 0.0    0.0     # H-H
pair_coeff      1 2 0.0    0.0     # O-H
pair_modify     tail yes

bond_coeff      1 1000.0 0.9572    # O-H
angle_coeff     1 100.0 104.52     # H-O-H

group           gH2O type 1 2
3000 atoms in group gH2O

neighbor        3.0 bin
neigh_modify    delay 0 every 1 check yes

velocity        all create 298.15 12345 dist gaussian
fix             1 gH2O shake 1.0e-4 100 0 b 1 a 1
Finding SHAKE clusters ...
       0 = # of size 2 clusters
       0 = # of size 3 clusters
       0 = # of size 4 clusters
    1000 = # of frozen angles
  find clusters CPU = 0.001 seconds

# variable        massAll equal mass(all)/6.022e23
# variable        volCm3  equal vol*1.0e-24
# variable        density_sys equal v_massAll/v_volCm3

# -------------------------NVT релаксация----------------------
fix nvt all nvt temp 300.0 300.0 100.0 # NVT термостат Ланжевена
thermo_style custom step temp press etotal density pe ke # сами задаем параметры термодинамики, которые хотим вывести
thermo 1000 # вывод каждые 1000 шагов

dump         1 all custom 100 snaps/traj.lammpstrj id type x y z vx vy vz

run 10000 # Запуск NVT релаксации на 10000 шагов

CITE-CITE-CITE-CITE-CITE-CITE-CITE-CITE-CITE-CITE-CITE-CITE-CITE

Your simulation uses code contributions which should be cited:

- Type Label Framework: https://doi.org/10.1021/acs.jpcb.3c08419

@Article{Gissinger24,
 author = {Jacob R. Gissinger, Ilia Nikiforov, Yaser Afshar, Brendon Waters, Moon-ki Choi, Daniel S. Karls, Alexander Stukowski, Wonpil Im, Hendrik Heinz, Axel Kohlmeyer, and Ellad B. Tadmor},
 title = {Type Label Framework for Bonded Force Fields in LAMMPS},
 journal = {J. Phys. Chem. B},
 year =    2024,
 volume =  128,
 number =  13,
 pages =   {3282–-3297}
}

CITE-CITE-CITE-CITE-CITE-CITE-CITE-CITE-CITE-CITE-CITE-CITE-CITE

PPPM initialization ...
  extracting TIP4P info from pair style
  G vector (1/distance) = 0.22431841
  grid = 18 18 18
  stencil order = 5
  estimated absolute RMS force accuracy = 0.030008584
  estimated relative force accuracy = 9.0369959e-05
  3d grid and FFT values/proc = 6400 1620
Generated 0 of 1 mixed pair_coeff terms from geometric mixing rule
Step          Temp          Press          TotEng        Density         PotEng         KinEng
0   447.29957      1353.631       1109.049       0.4966266     -1556.2478      2665.2968
Averages over the last 6 of 11 rows, steps 5000 to 10000:
Temp Press TotEng Density PotEng KinEng
303.987 -1024.55 -10727.7 0.496627 -12539.1 1811.35
Loop time of 159.643 on 4 procs for 10000 steps with 3000 atoms

unfix nvt # отключаем nvt

# ------------------------NPT моделирование-------------------
fix npt all npt temp 300.0 300.0 100.0 iso 1.0 1.0 1000.0 # NPT термостат и баростат Ланжевена
thermo_style custom step temp press etotal density pe ke
thermo 1000 # вывод каждые 1000 шагов

run 40000 # Запуск NPT моделирования на 40000 шагов
PPPM initialization ...
  extracting TIP4P info from pair style
  G vector (1/distance) = 0.22431841
  grid = 18 18 18
  stencil order = 5
  estimated absolute RMS force accuracy = 0.030008584
  estimated relative force accuracy = 9.0369959e-05
  3d grid and FFT values/proc = 6400 1620
Generated 0 of 1 mixed pair_coeff terms from geometric mixing rule
Step          Temp          Press          TotEng        Density         PotEng         KinEng
10000   306.5937      -1123.5435     -10952.434      0.4966266     -12779.315      1826.8813
Averages over the last 21 of 41 rows, steps 30000 to 50000:
Temp Press TotEng Density PotEng KinEng
299.553 -85.0978 -12208.5 0.99791 -13993.4 1784.93
Loop time of 1397.74 on 4 procs for 40000 steps with 3000 atoms

write_data /home/elizaveta/modeling/tip4p-NPT.data
System init for write_data ...
PPPM initialization ...
  extracting TIP4P info from pair style
  G vector (1/distance) = 0.22789571
  grid = 15 15 15
  stencil order = 5
  estimated absolute RMS force accuracy = 0.033766272
  estimated relative force accuracy = 0.00010168612
  3d grid and FFT values/proc = 4312 960
Generated 0 of 1 mixed pair_coeff terms from geometric mixing rule

# thermo          1000
# thermo_style    custom step temp vol etotal pe ke epair ecoul lx ly lz v_density_sys cpuremain
# thermo_modify   flush yes

# fix             fnpt all npt temp 298.1 298.15 200.0 iso 0.9869 0.9869 1000.0

# timestep	1.0
# run             250000

# write_data  16by16by16_H2O.data pair ij
